<NUMBER OF ZONES> 4
<TOTAL OD FLOW> 2000
<END OF METADATA>


Origin 	1 
    1 :      0.0;     2 :    400.0;   3 : 800.0; 4 : 0.0;     

Origin 	2
    1 :      0.0;     2 :    0.0;   3 : 0.0; 4 : 0.0;   

Origin 	3 
    1 :      0.0;     2 :    0.0;   3 : 0.0; 4 : 0.0;   

Origin 	4 
    1 :      0.0;     2 :    600.0;   3 : 200.0; 4 : 0.0;   


